Circuit: *** SPICE deck for cell MUX_8_1{lay} from library Proj3

Vgnd: both pins shorted together -- ignoring.
Ignoring BSIM parameter XL
Ignoring BSIM parameter XW
Ignoring BSIM parameter XL
Ignoring BSIM parameter XW
WARNING: Node I1#2PIN@147_POLYSILICON-1##23 is floating.

WARNING: Less than two connections to node 11.  This node is used by VIN1.
Direct Newton iteration for .op point succeeded.

Date: Sun May 10 18:22:40 2020
Total elapsed time: 1.181 seconds.

tnom = 27
temp = 27
method = modified trap
totiter = 4988
traniter = 4959
tranpoints = 1801
accept = 1547
rejected = 254
matrix size = 781
fillins = 938
solver = Normal
Thread vector: 68.3/19.3[11] 48.3/5.7[11] 10.4/3.1[11] 2.3/4.4[1]  2592/500
Matrix Compiler1: 82.79 KB object code size  40.0/23.5/[14.8]
Matrix Compiler2: 75.99 KB object code size  16.6/18.9/[6.1]


