Circuit: *** SPICE deck for cell MUX_8_1{lay} from library Proj3

Vgnd: both pins shorted together -- ignoring.
Ignoring BSIM parameter XL
Ignoring BSIM parameter XW
Ignoring BSIM parameter XL
Ignoring BSIM parameter XW
Direct Newton iteration for .op point succeeded.

Date: Sun Apr 19 00:21:19 2020
Total elapsed time: 18.690 seconds.

tnom = 27
temp = 27
method = modified trap
totiter = 70123
traniter = 70099
tranpoints = 28489
accept = 22770
rejected = 5719
matrix size = 780
fillins = 924
solver = Normal
Thread vector: 102.8/43.1[11] 34.8/12.6[11] 10.2/6.2[10] 3.4/3.9[1]  2592/500
Matrix Compiler1: 81.95 KB object code size  25.6/20.2/[14.0]
Matrix Compiler2: 75.73 KB object code size  14.0/20.2/[12.1]


