Circuit: *** SPICE deck for cell MUX_8_1_TG{lay} from library Proj3

Vgnd: both pins shorted together -- ignoring.
Ignoring BSIM parameter XL
Ignoring BSIM parameter XW
Ignoring BSIM parameter XL
Ignoring BSIM parameter XW
Direct Newton iteration for .op point succeeded.

Date: Sat Apr 18 02:29:36 2020
Total elapsed time: 11.220 seconds.

tnom = 27
temp = 27
method = modified trap
totiter = 60620
traniter = 60610
tranpoints = 26522
accept = 21769
rejected = 4753
matrix size = 634
fillins = 950
solver = Normal
Thread vector: 48.0/16.6[9] 23.4/5.3[9] 4.4/3.1[5] 2.2/4.0[1]  2592/500
Matrix Compiler1: 73.75 KB object code size  31.4/18.8/[8.6]
Matrix Compiler2: 64.17 KB object code size  12.9/15.6/[4.0]


