Circuit: *** SPICE deck for cell MUX_8_1{lay} from library Proj3

Vgnd: both pins shorted together -- ignoring.
Ignoring BSIM parameter XL
Ignoring BSIM parameter XW
Ignoring BSIM parameter XL
Ignoring BSIM parameter XW
Direct Newton iteration for .op point succeeded.

Date: Fri Apr 17 00:39:30 2020
Total elapsed time: 50.422 seconds.

tnom = 27
temp = 27
method = modified trap
totiter = 70268
traniter = 70244
tranpoints = 28472
accept = 22778
rejected = 5694
matrix size = 795
fillins = 982
solver = Normal
Thread vector: 231.6/76.7[11] 119.2/20.1[11] 28.3/10.6[11] 8.2/15.0[1]  2592/500
Matrix Compiler1: 85.10 KB object code size  99.2/65.3/[44.3]
Matrix Compiler2: 77.77 KB object code size  39.2/65.0/[20.8]


