Circuit: *** SPICE deck for cell MUX_4_1_TG{lay} from library Proj3

Vgnd: both pins shorted together -- ignoring.
Ignoring BSIM parameter XL
Ignoring BSIM parameter XW
Ignoring BSIM parameter XL
Ignoring BSIM parameter XW
Direct Newton iteration for .op point succeeded.

Date: Sat Apr 18 00:47:25 2020
Total elapsed time: 0.382 seconds.

tnom = 27
temp = 27
method = modified trap
totiter = 6513
traniter = 6504
tranpoints = 2850
accept = 2444
rejected = 406
matrix size = 280
fillins = 376
solver = Normal
Thread vector: 21.7/9.7[4] 5.2/3.0[4] 1.0/1.6[1] 0.9/1.8[1]  2592/500
Matrix Compiler1: 29.73 KB object code size  5.0/3.1/[2.2]
Matrix Compiler2: 27.51 KB object code size  2.1/2.6/[1.4]


