Circuit: *** SPICE deck for cell MUX_8_1_TG{lay} from library Proj3

Fatal Error: Multiple instances of "C0"
