Circuit: *** SPICE deck for cell MUX_4_1{sch} from library Proj3

Vgnd: both pins shorted together -- ignoring.
Ignoring BSIM parameter XL
Ignoring BSIM parameter XW
Ignoring BSIM parameter XL
Ignoring BSIM parameter XW
Warning: Pd = 0 is less than W.
Warning: Ps = 0 is less than W.
Warning: Pd = 0 is less than W.
Warning: Ps = 0 is less than W.
Direct Newton iteration for .op point succeeded.

Date: Mon Apr 13 13:39:44 2020
Total elapsed time: 0.299 seconds.

tnom = 27
temp = 27
method = modified trap
totiter = 7973
traniter = 7959
tranpoints = 3004
accept = 2515
rejected = 489
matrix size = 32
fillins = 6
solver = Normal
Thread vector: 34.2/15.2[3] 7.0/3.5[3] 2.3/1.7[3] 0.2/1.3[1]  2592/500
Matrix Compiler1: 2.56 KB object code size  0.6/0.3/[0.2]
Matrix Compiler2: 3.66 KB object code size  0.4/0.4/[0.3]


