Circuit: *** SPICE deck for cell MUX_8_1_TG{lay} from library Proj3

Vgnd: both pins shorted together -- ignoring.
Ignoring BSIM parameter XL
Ignoring BSIM parameter XW
Ignoring BSIM parameter XL
Ignoring BSIM parameter XW
Direct Newton iteration for .op point succeeded.

Date: Sun May 10 18:19:14 2020
Total elapsed time: 10.631 seconds.

tnom = 27
temp = 27
method = modified trap
totiter = 60650
traniter = 60640
tranpoints = 26557
accept = 21781
rejected = 4776
matrix size = 634
fillins = 950
solver = Normal
Thread vector: 49.5/16.2[9] 11.3/3.8[9] 2.5/3.6[1] 2.6/4.2[1]  2592/500
Matrix Compiler1: 73.75 KB object code size  13.9/8.0/[5.9]
Matrix Compiler2: 64.17 KB object code size  5.1/6.2/[4.4]


