Circuit: *** SPICE deck for cell MUX_2_1{lay} from library Proj3

Vgnd: both pins shorted together -- ignoring.
Ignoring BSIM parameter XL
Ignoring BSIM parameter XW
Ignoring BSIM parameter XL
Ignoring BSIM parameter XW
Direct Newton iteration for .op point succeeded.

Date: Mon Apr 13 04:00:17 2020
Total elapsed time: 0.283 seconds.

tnom = 27
temp = 27
method = modified trap
totiter = 3700
traniter = 3682
tranpoints = 1671
accept = 1512
rejected = 159
matrix size = 83
fillins = 50
solver = Normal
Matrix Compiler1: 6.87 KB object code size  3.0/1.9/[1.1]
Matrix Compiler2: 7.33 KB object code size  1.5/1.9/[0.8]


