Circuit: *** SPICE deck for cell MUX_2_1{sch} from library Proj3

Vgnd: both pins shorted together -- ignoring.
Ignoring BSIM parameter XL
Ignoring BSIM parameter XW
Ignoring BSIM parameter XL
Ignoring BSIM parameter XW
Warning: Pd = 0 is less than W.
Warning: Ps = 0 is less than W.
Warning: Pd = 0 is less than W.
Warning: Ps = 0 is less than W.
Direct Newton iteration for .op point succeeded.

Date: Mon Apr 13 02:40:52 2020
Total elapsed time: 0.181 seconds.

tnom = 27
temp = 27
method = modified trap
totiter = 3861
traniter = 3848
tranpoints = 1656
accept = 1496
rejected = 160
matrix size = 14
fillins = 2
solver = Normal
Matrix Compiler1: 832 bytes object code size  0.2/0.1/[0.1]
Matrix Compiler2: 1.42 KB object code size  0.2/0.2/[0.1]


