Circuit: *** SPICE deck for cell MUX_8_1{sch} from library Proj3

Vgnd: both pins shorted together -- ignoring.
Ignoring BSIM parameter XL
Ignoring BSIM parameter XW
Ignoring BSIM parameter XL
Ignoring BSIM parameter XW
Warning: Pd = 0 is less than W.
Warning: Ps = 0 is less than W.
Warning: Pd = 0 is less than W.
Warning: Ps = 0 is less than W.
Direct Newton iteration for .op point succeeded.

Date: Tue Apr 14 23:18:02 2020
Total elapsed time: 4.278 seconds.

tnom = 27
temp = 27
method = modified trap
totiter = 76153
traniter = 76137
tranpoints = 28233
accept = 22399
rejected = 5834
matrix size = 66
fillins = 14
solver = Normal
Thread vector: 80.3/24.7[8] 33.3/5.8[8] 11.1/3.6[8] 0.4/2.5[1]  2592/500
Matrix Compiler1: 6.08 KB object code size  3.2/1.9/[0.8]
Matrix Compiler2: 8.01 KB object code size  2.0/2.6/[0.5]


