Circuit: *** SPICE deck for cell MUX_8_1_TG{lay} from library Proj3

Vgnd: both pins shorted together -- ignoring.
Ignoring BSIM parameter XL
Ignoring BSIM parameter XW
Ignoring BSIM parameter XL
Ignoring BSIM parameter XW
Direct Newton iteration for .op point succeeded.

Date: Sun Apr 19 00:18:28 2020
Total elapsed time: 11.169 seconds.

tnom = 27
temp = 27
method = modified trap
totiter = 60650
traniter = 60640
tranpoints = 26557
accept = 21781
rejected = 4776
matrix size = 634
fillins = 950
solver = Normal
Thread vector: 97.1/31.8[9] 42.8/5.6[9] 8.6/3.3[9] 4.9/3.8[4]  2592/500
Matrix Compiler1: 73.75 KB object code size  46.1/38.0/[17.1]
Matrix Compiler2: 64.17 KB object code size  20.8/28.8/[7.5]


