Circuit: *** SPICE deck for cell MUX_2_1_TG2{lay} from library Proj3

Vgnd: both pins shorted together -- ignoring.
Ignoring BSIM parameter XL
Ignoring BSIM parameter XW
Ignoring BSIM parameter XL
Ignoring BSIM parameter XW
Direct Newton iteration for .op point succeeded.

Date: Fri Apr 17 23:29:31 2020
Total elapsed time: 0.236 seconds.

tnom = 27
temp = 27
method = modified trap
totiter = 3023
traniter = 3015
tranpoints = 1451
accept = 1357
rejected = 94
matrix size = 100
fillins = 60
solver = Normal
Matrix Compiler1: 7.37 KB object code size  1.6/1.2/[0.8]
Matrix Compiler2: 8.50 KB object code size  0.9/1.1/[0.7]


