Circuit: *** SPICE deck for cell MUX_4_1{sch} from library Proj3

Vgnd: both pins shorted together -- ignoring.
Ignoring BSIM parameter XL
Ignoring BSIM parameter XW
Ignoring BSIM parameter XL
Ignoring BSIM parameter XW
Warning: Pd = 0 is less than W.
Warning: Ps = 0 is less than W.
Warning: Pd = 0 is less than W.
Warning: Ps = 0 is less than W.
Direct Newton iteration for .op point succeeded.

Date: Tue Apr 14 19:47:07 2020
Total elapsed time: 0.414 seconds.

tnom = 27
temp = 27
method = modified trap
totiter = 12504
traniter = 12490
tranpoints = 4803
accept = 3899
rejected = 904
matrix size = 32
fillins = 6
solver = Normal
Thread vector: 59.1/33.8[3] 14.7/7.6[3] 5.2/3.7[3] 0.4/3.1[1]  2592/500
Matrix Compiler1: 2.56 KB object code size  1.3/0.8/[0.4]
Matrix Compiler2: 3.66 KB object code size  0.9/1.0/[0.5]


