Circuit: *** SPICE deck for cell MUX_8_1_TG{sch} from library Proj3

Vgnd: both pins shorted together -- ignoring.
Ignoring BSIM parameter XL
Ignoring BSIM parameter XW
Ignoring BSIM parameter XL
Ignoring BSIM parameter XW
Warning: Pd = 0 is less than W.
Warning: Ps = 0 is less than W.
Warning: Pd = 0 is less than W.
Warning: Ps = 0 is less than W.
Direct Newton iteration for .op point succeeded.

Date: Sat Apr 18 01:14:26 2020
Total elapsed time: 1.449 seconds.

tnom = 27
temp = 27
method = modified trap
totiter = 61446
traniter = 61437
tranpoints = 24511
accept = 20369
rejected = 4142
matrix size = 38
fillins = 0
solver = Normal
Thread vector: 34.2/13.7[4] 6.8/3.1[4] 2.1/1.6[4] 0.2/1.2[1]  2592/500
Matrix Compiler1: 2.65 KB object code size  0.5/0.3/[0.1]
Matrix Compiler2: 4.62 KB object code size  0.4/0.4/[0.3]


