Circuit: *** SPICE deck for cell MUX_8_1_TG{lay} from library Proj3

Vgnd: both pins shorted together -- ignoring.
Ignoring BSIM parameter XL
Ignoring BSIM parameter XW
Ignoring BSIM parameter XL
Ignoring BSIM parameter XW
Direct Newton iteration for .op point succeeded.

Date: Sun Apr 19 22:32:19 2020
Total elapsed time: 11.801 seconds.

tnom = 27
temp = 27
method = modified trap
totiter = 60650
traniter = 60640
tranpoints = 26557
accept = 21781
rejected = 4776
matrix size = 634
fillins = 950
solver = Normal
Thread vector: 85.4/28.4[9] 32.7/6.0[9] 6.3/3.9[9] 3.7/4.2[1]  2592/500
Matrix Compiler1: 73.75 KB object code size  32.5/29.4/[15.7]
Matrix Compiler2: 64.17 KB object code size  13.8/24.6/[6.0]


