Circuit: *** SPICE deck for cell MUX_4_1{sch} from library Proj3

Vgnd: both pins shorted together -- ignoring.
Ignoring BSIM parameter XL
Ignoring BSIM parameter XW
Ignoring BSIM parameter XL
Ignoring BSIM parameter XW
Warning: Pd = 0 is less than W.
Warning: Ps = 0 is less than W.
Warning: Pd = 0 is less than W.
Warning: Ps = 0 is less than W.
Direct Newton iteration for .op point succeeded.

Date: Sun Apr 12 03:00:48 2020
Total elapsed time: 0.277 seconds.

tnom = 27
temp = 27
method = modified trap
totiter = 7491
traniter = 7459
tranpoints = 2857
accept = 2426
rejected = 431
matrix size = 29
fillins = 6
solver = Normal
Thread vector: 27.2/12.9[3] 5.5/3.0[3] 2.1/1.6[3] 0.2/1.2[1]  2592/500
Matrix Compiler1: 2.75 KB object code size  0.5/0.3/[0.2]
Matrix Compiler2: 3.44 KB object code size  0.3/0.4/[0.3]


