Circuit: *** SPICE deck for cell MUX_8_1{sch} from library Proj3

Vgnd: both pins shorted together -- ignoring.
Ignoring BSIM parameter XL
Ignoring BSIM parameter XW
Ignoring BSIM parameter XL
Ignoring BSIM parameter XW
Warning: Pd = 0 is less than W.
Warning: Ps = 0 is less than W.
Warning: Pd = 0 is less than W.
Warning: Ps = 0 is less than W.
Direct Newton iteration for .op point succeeded.

Date: Sun May 10 18:20:07 2020
Total elapsed time: 5.848 seconds.

tnom = 27
temp = 27
method = modified trap
totiter = 73858
traniter = 73842
tranpoints = 27686
accept = 22061
rejected = 5625
matrix size = 66
fillins = 14
solver = Normal
Thread vector: 173.9/31.2[8] 24.2/13.4[8] 7.8/9.7[1] 0.7/7.0[1]  2592/500
Matrix Compiler1: 6.08 KB object code size  2.4/1.3/[0.7]
Matrix Compiler2: 8.01 KB object code size  1.5/1.7/[1.1]


