Circuit: *** SPICE deck for cell MUX_8_1_TG{sch} from library Proj3

