Circuit: *** SPICE deck for cell MUX_8_1{lay} from library Proj3

Vgnd: both pins shorted together -- ignoring.
Ignoring BSIM parameter XL
Ignoring BSIM parameter XW
Ignoring BSIM parameter XL
Ignoring BSIM parameter XW
Direct Newton iteration for .op point succeeded.

Date: Sun Apr 19 21:48:10 2020
Total elapsed time: 18.992 seconds.

tnom = 27
temp = 27
method = modified trap
totiter = 70123
traniter = 70099
tranpoints = 28489
accept = 22770
rejected = 5719
matrix size = 780
fillins = 924
solver = Normal
Thread vector: 103.5/34.1[11] 54.9/6.9[11] 13.5/4.1[11] 3.5/5.2[1]  2592/500
Matrix Compiler1: 81.95 KB object code size  42.8/29.3/[23.1]
Matrix Compiler2: 75.73 KB object code size  17.6/30.3/[7.5]


