Circuit: *** SPICE deck for cell HW3_2{lay} from library project_1_delmaybe

Vgnd: both pins shorted together -- ignoring.
Ignoring BSIM parameter XL
Ignoring BSIM parameter XW
Ignoring BSIM parameter XL
Ignoring BSIM parameter XW
Vin4: Missing value, assumed 0V @ DC
Direct Newton iteration for .op point succeeded.

Date: Wed Mar 04 22:59:31 2020
Total elapsed time: 0.248 seconds.

tnom = 27
temp = 27
method = modified trap
totiter = 4207
traniter = 4185
tranpoints = 1611
accept = 1433
rejected = 178
matrix size = 105
fillins = 86
solver = Normal
Matrix Compiler1: 9.26 KB object code size  1.9/1.2/[0.9]
Matrix Compiler2: 9.48 KB object code size  0.9/1.2/[0.7]


