Circuit: *** SPICE deck for cell HW3_2_way1{lay} from library project_1_delmaybe

Vgnd: both pins shorted together -- ignoring.
Ignoring BSIM parameter XL
Ignoring BSIM parameter XW
Ignoring BSIM parameter XL
Ignoring BSIM parameter XW
Direct Newton iteration for .op point succeeded.

Date: Wed Mar 04 23:20:38 2020
Total elapsed time: 0.269 seconds.

tnom = 27
temp = 27
method = modified trap
totiter = 4157
traniter = 4132
tranpoints = 1555
accept = 1395
rejected = 160
matrix size = 98
fillins = 92
solver = Normal
Matrix Compiler1: 9.18 KB object code size  3.9/2.4/[1.5]
Matrix Compiler2: 9.04 KB object code size  1.7/2.4/[0.7]


