Circuit: *** SPICE deck for cell NAND_2{lay} from library project_1

Vgnd: both pins shorted together -- ignoring.
Ignoring BSIM parameter XL
Ignoring BSIM parameter XW
Ignoring BSIM parameter XL
Ignoring BSIM parameter XW
Direct Newton iteration for .op point succeeded.

Date: Wed Mar 04 03:33:11 2020
Total elapsed time: 0.140 seconds.

tnom = 27
temp = 27
method = modified trap
totiter = 2249
traniter = 2242
tranpoints = 1100
accept = 1083
rejected = 17
matrix size = 28
fillins = 14
solver = Normal
Matrix Compiler1: 1.98 KB object code size  0.9/0.7/[0.6]
Matrix Compiler2: 2.32 KB object code size  0.5/0.6/[0.4]


