Circuit: *** SPICE deck for cell NAND_3{lay} from library project_1

