Circuit: *** SPICE deck for cell Eight_bit_adder{lay} from library Proj2

Vgnd: both pins shorted together -- ignoring.
Ignoring BSIM parameter XL
Ignoring BSIM parameter XW
Ignoring BSIM parameter XL
Ignoring BSIM parameter XW
WARNING: Node OUT is floating.

WARNING: Less than two connections to node OUT.  This node is used by CLOAD.
Vin17: Missing value, assumed 0V @ DC
Vin13: Missing value, assumed 0V @ DC
Vin11: Missing value, assumed 0V @ DC
Vin9: Missing value, assumed 0V @ DC
Vin6: Missing value, assumed 0V @ DC
Vin3: Missing value, assumed 0V @ DC
Vin2: Missing value, assumed 0V @ DC
Direct Newton iteration for .op point succeeded.

Date: Fri Mar 20 03:11:17 2020
Total elapsed time: 41.991 seconds.

tnom = 27
temp = 27
method = modified trap
totiter = 3853
traniter = 3809
tranpoints = 1633
accept = 1466
rejected = 167
matrix size = 11940
fillins = 23598
solver = Normal
Thread vector: 361.8/81.4[12] 233.1/27.1[12] 46.5/9.7[12] 67.4/33.6[12]  2592/500
Matrix Compiler1: 1.52 MB object code size  777.7/473.7/[394.3]
Matrix Compiler2: 1.23 MB object code size  303.5/306.6/[161.1]


