Circuit: *** SPICE deck for cell Eight_bit_adder{sch} from library Proj2

