Circuit: *** SPICE deck for cell Eight_bit_adder{lay} from library Proj2

Vgnd: both pins shorted together -- ignoring.
Ignoring BSIM parameter XL
Ignoring BSIM parameter XW
Ignoring BSIM parameter XL
Ignoring BSIM parameter XW
WARNING: Node OUT is floating.

WARNING: Less than two connections to node OUT.  This node is used by CLOAD.
Vin17: Missing value, assumed 0V @ DC
Vin16: Missing value, assumed 0V @ DC
Vin15: Missing value, assumed 0V @ DC
Vin14: Missing value, assumed 0V @ DC
Vin13: Missing value, assumed 0V @ DC
Vin12: Missing value, assumed 0V @ DC
Vin11: Missing value, assumed 0V @ DC
Vin10: Missing value, assumed 0V @ DC
Vin9: Missing value, assumed 0V @ DC
Vin8: Missing value, assumed 0V @ DC
Vin7: Missing value, assumed 0V @ DC
Vin6: Missing value, assumed 0V @ DC
Vin5: Missing value, assumed 0V @ DC
Vin4: Missing value, assumed 0V @ DC
Vin3: Missing value, assumed 0V @ DC
Vin2: Missing value, assumed 0V @ DC
Vin1: Missing value, assumed 0V @ DC
Direct Newton iteration failed to find .op point.  (Use ".option noopiter" to skip.)
Starting Gmin stepping
Gmin = 10
Gmin = 1.07374
Gmin = 0.115292
Gmin = 0.0123794
Gmin = 0.00132923
Gmin = 0.000142725
Gmin = 1.5325e-005
Gmin = 1.6455e-006
Gmin = 1.76685e-007
Gmin = 1.89714e-008
Gmin = 2.03704e-009
Gmin = 2.18725e-010
Gmin = 2.34854e-011
Gmin = 2.52173e-012
Gmin = 2.70769e-013
Gmin = 0
Gmin stepping succeeded in finding the operating point.


Date: Thu Mar 19 01:55:06 2020
Total elapsed time: 86.061 seconds.

tnom = 27
temp = 27
method = modified trap
totiter = 2586
traniter = 2082
tranpoints = 1042
accept = 1042
rejected = 0
matrix size = 11924
fillins = 8192
solver = Normal
Thread vector: 313.9/81.8[12] 248.9/35.1[12] 64.7/20.3[12] 58.8/31.3[12]  2592/500
Matrix Compiler1: 1.54 MB object code size  842.8/520.0/[433.1]
Matrix Compiler2: 1.24 MB object code size  271.0/279.1/[150.2]


