Circuit: *** SPICE deck for cell Eight_bit_adder{lay} from library Proj2

Vgnd: both pins shorted together -- ignoring.
Ignoring BSIM parameter XL
Ignoring BSIM parameter XW
Ignoring BSIM parameter XL
Ignoring BSIM parameter XW
WARNING: Node B3 is floating.
WARNING: Node B4 is floating.
WARNING: Node B5 is floating.
WARNING: Node B6 is floating.
WARNING: Node B7 is floating.
WARNING: Node A6 is floating.
WARNING: Node A5 is floating.
WARNING: Node A4 is floating.
WARNING: Node A3 is floating.
WARNING: Node A7 is floating.
WARNING: Node OUT is floating.

WARNING: Less than two connections to node B3.  This node is used by C36.
WARNING: Less than two connections to node B4.  This node is used by C37.
WARNING: Less than two connections to node B5.  This node is used by C38.
WARNING: Less than two connections to node B6.  This node is used by C39.
WARNING: Less than two connections to node B7.  This node is used by C40.
WARNING: Less than two connections to node A6.  This node is used by C41.
WARNING: Less than two connections to node A5.  This node is used by C42.
WARNING: Less than two connections to node A4.  This node is used by C43.
WARNING: Less than two connections to node A3.  This node is used by C44.
WARNING: Less than two connections to node A7.  This node is used by C80.
WARNING: Less than two connections to node OUT.  This node is used by CLOAD.
Vin7: Missing value, assumed 0V @ DC
Vin6: Missing value, assumed 0V @ DC
Vin5: Missing value, assumed 0V @ DC
Vin4: Missing value, assumed 0V @ DC
Vin3: Missing value, assumed 0V @ DC
Vin2: Missing value, assumed 0V @ DC
Vin1: Missing value, assumed 0V @ DC
Direct Newton iteration for .op point succeeded.

Date: Wed Mar 18 23:04:50 2020
Total elapsed time: 14.188 seconds.

tnom = 27
temp = 27
method = modified trap
totiter = 2118
traniter = 2082
tranpoints = 1042
accept = 1042
rejected = 0
matrix size = 4468
fillins = 8784
solver = Normal
Thread vector: 120.5/37.8[12] 80.3/13.3[12] 15.8/5.6[12] 23.2/12.2[11]  2592/500
Matrix Compiler1: 578.08 KB object code size  287.3/168.8/[135.9]
Matrix Compiler2: 471.05 KB object code size  106.2/113.8/[53.0]


