Circuit: *** SPICE deck for cell Eight_bit_adder{lay} from library Proj2

Vgnd: both pins shorted together -- ignoring.
Ignoring BSIM parameter XL
Ignoring BSIM parameter XW
Ignoring BSIM parameter XL
Ignoring BSIM parameter XW
WARNING: Node B5 is floating.
WARNING: Node B6 is floating.
WARNING: Node B7 is floating.
WARNING: Node A6 is floating.
WARNING: Node A5 is floating.
WARNING: Node A7 is floating.
WARNING: Node OUT is floating.

WARNING: Less than two connections to node B5.  This node is used by C37.
WARNING: Less than two connections to node B6.  This node is used by C38.
WARNING: Less than two connections to node B7.  This node is used by C39.
WARNING: Less than two connections to node A6.  This node is used by C40.
WARNING: Less than two connections to node A5.  This node is used by C41.
WARNING: Less than two connections to node A7.  This node is used by C78.
WARNING: Less than two connections to node OUT.  This node is used by CLOAD.
Vin11: Missing value, assumed 0V @ DC
Vin10: Missing value, assumed 0V @ DC
Vin9: Missing value, assumed 0V @ DC
Vin8: Missing value, assumed 0V @ DC
Vin7: Missing value, assumed 0V @ DC
Vin6: Missing value, assumed 0V @ DC
Vin5: Missing value, assumed 0V @ DC
Vin4: Missing value, assumed 0V @ DC
Vin3: Missing value, assumed 0V @ DC
Vin2: Missing value, assumed 0V @ DC
Vin1: Missing value, assumed 0V @ DC
Direct Newton iteration for .op point succeeded.

Date: Thu Mar 19 01:04:12 2020
Total elapsed time: 22.855 seconds.

tnom = 27
temp = 27
method = modified trap
totiter = 2121
traniter = 2082
tranpoints = 1042
accept = 1042
rejected = 0
matrix size = 7442
fillins = 14646
solver = Normal
Thread vector: 196.9/52.1[12] 123.9/18.5[12] 22.8/10.9[12] 39.2/21.4[12]  2592/500
Matrix Compiler1: 964.00 KB object code size  421.6/262.0/[216.9]
Matrix Compiler2: 785.28 KB object code size  160.4/173.0/[87.7]


