Circuit: *** SPICE deck for cell Four_bit_adder{sch} from library Proj2

Vgnd: both pins shorted together -- ignoring.
Ignoring BSIM parameter XL
Ignoring BSIM parameter XW
Ignoring BSIM parameter XL
Ignoring BSIM parameter XW
WARNING: Node OUT is floating.

WARNING: Less than two connections to node OUT.  This node is used by CLOAD.
Warning: Pd = 0 is less than W.
Warning: Ps = 0 is less than W.
Warning: Pd = 0 is less than W.
Warning: Ps = 0 is less than W.
Warning: Pd = 0 is less than W.
Warning: Ps = 0 is less than W.
Vin9: Missing value, assumed 0V @ DC
Vin8: Missing value, assumed 0V @ DC
Vin7: Missing value, assumed 0V @ DC
Vin6: Missing value, assumed 0V @ DC
Vin5: Missing value, assumed 0V @ DC
Vin4: Missing value, assumed 0V @ DC
Vin3: Missing value, assumed 0V @ DC
Vin2: Missing value, assumed 0V @ DC
Vin1: Missing value, assumed 0V @ DC
Direct Newton iteration for .op point succeeded.

Date: Wed Mar 18 04:58:34 2020
Total elapsed time: 1.056 seconds.

tnom = 27
temp = 27
method = modified trap
totiter = 2121
traniter = 2082
tranpoints = 1042
accept = 1042
rejected = 0
matrix size = 101
fillins = 46
solver = Normal
Thread vector: 128.1/25.9[12] 63.3/6.5[12] 20.5/8.0[12] 0.5/2.8[1]  2592/500
Matrix Compiler1: 14.32 KB object code size  6.1/3.2/[1.8]
Matrix Compiler2: 13.54 KB object code size  2.9/3.9/[0.8]


