Circuit: *** SPICE deck for cell One_bit_adder2{sch} from library Proj2

Vgnd: both pins shorted together -- ignoring.
Ignoring BSIM parameter XL
Ignoring BSIM parameter XW
Ignoring BSIM parameter XL
Ignoring BSIM parameter XW
WARNING: Node OUT is floating.

WARNING: Less than two connections to node OUT.  This node is used by CLOAD.
Warning: Pd = 0 is less than W.
Warning: Ps = 0 is less than W.
Warning: Pd = 0 is less than W.
Warning: Ps = 0 is less than W.
Warning: Pd = 0 is less than W.
Warning: Ps = 0 is less than W.
Direct Newton iteration for .op point succeeded.

Date: Thu Mar 19 17:44:16 2020
Total elapsed time: 0.612 seconds.

tnom = 27
temp = 27
method = modified trap
totiter = 25647
traniter = 25603
tranpoints = 7823
accept = 5973
rejected = 1850
matrix size = 29
fillins = 6
solver = Normal
Thread vector: 27.1/10.5[4] 6.8/3.1[4] 2.5/1.5[4] 0.1/1.1[1]  2592/500
Matrix Compiler1: 2.97 KB object code size  0.5/0.3/[0.2]
Matrix Compiler2: 3.45 KB object code size  0.3/0.4/[0.3]


