Circuit: *** SPICE deck for cell One_bit_adder2{lay} from library Proj2

Vgnd: both pins shorted together -- ignoring.
Ignoring BSIM parameter XL
Ignoring BSIM parameter XW
Ignoring BSIM parameter XL
Ignoring BSIM parameter XW
WARNING: Node OUT is floating.

WARNING: Less than two connections to node OUT.  This node is used by CLOAD.
Vin3: Missing value, assumed 0V @ DC
Vin2: Missing value, assumed 0V @ DC
Vin1: Missing value, assumed 0V @ DC
Direct Newton iteration for .op point succeeded.

Date: Thu Mar 19 00:50:54 2020
Total elapsed time: 1.245 seconds.

tnom = 27
temp = 27
method = modified trap
totiter = 2117
traniter = 2082
tranpoints = 1042
accept = 1042
rejected = 0
matrix size = 772
fillins = 1272
solver = Normal
Thread vector: 31.0/15.9[5] 10.3/5.0[5] 2.4/3.4[1] 2.3/4.0[1]  2592/500
Matrix Compiler1: 91.26 KB object code size  38.5/10.6/[9.2]
Matrix Compiler2: 78.40 KB object code size  6.4/8.1/[6.0]


