Circuit: *** SPICE deck for cell Two_bit_adder2{sch} from library Proj2

Vgnd: both pins shorted together -- ignoring.
Ignoring BSIM parameter XL
Ignoring BSIM parameter XW
Ignoring BSIM parameter XL
Ignoring BSIM parameter XW
WARNING: Node OUT is floating.

WARNING: Less than two connections to node OUT.  This node is used by CLOAD.
Warning: Pd = 0 is less than W.
Warning: Ps = 0 is less than W.
Warning: Pd = 0 is less than W.
Warning: Ps = 0 is less than W.
Warning: Pd = 0 is less than W.
Warning: Ps = 0 is less than W.
Direct Newton iteration for .op point succeeded.

Date: Tue Mar 17 22:37:55 2020
Total elapsed time: 0.247 seconds.

tnom = 27
temp = 27
method = modified trap
totiter = 4948
traniter = 4904
tranpoints = 1772
accept = 1562
rejected = 210
matrix size = 29
fillins = 6
solver = Normal
Thread vector: 37.1/17.3[4] 8.8/4.4[4] 3.1/2.4[4] 0.2/1.8[1]  2592/500
Matrix Compiler1: 2.92 KB object code size  0.6/0.4/[0.2]
Matrix Compiler2: 3.47 KB object code size  0.4/0.5/[0.4]


