Circuit: *** SPICE deck for cell Two_bit_adder{lay} from library Proj2

Vgnd: both pins shorted together -- ignoring.
Ignoring BSIM parameter XL
Ignoring BSIM parameter XW
Ignoring BSIM parameter XL
Ignoring BSIM parameter XW
Direct Newton iteration for .op point succeeded.

Date: Wed Mar 18 00:09:19 2020
Total elapsed time: 0.278 seconds.

tnom = 27
temp = 27
method = modified trap
totiter = 2408
traniter = 2386
tranpoints = 1129
accept = 1099
rejected = 30
matrix size = 121
fillins = 96
solver = Normal
Thread vector: 47.8/29.4[2] 7.5/6.4[2] 1.8/3.6[1] 0.7/3.7[1]  2592/500
Matrix Compiler1: 10.71 KB object code size  4.7/3.3/[2.5]
Matrix Compiler2: 10.94 KB object code size  2.2/2.9/[1.0]


