Circuit: *** SPICE deck for cell Two_bit_adder2{lay} from library Proj2

Vgnd: both pins shorted together -- ignoring.
Ignoring BSIM parameter XL
Ignoring BSIM parameter XW
Ignoring BSIM parameter XL
Ignoring BSIM parameter XW
WARNING: Node OUT is floating.

WARNING: Less than two connections to node OUT.  This node is used by CLOAD.
Direct Newton iteration for .op point succeeded.

Date: Wed Mar 18 02:24:00 2020
Total elapsed time: 0.904 seconds.

tnom = 27
temp = 27
method = modified trap
totiter = 4495
traniter = 4457
tranpoints = 1846
accept = 1617
rejected = 229
matrix size = 772
fillins = 1272
solver = Normal
Thread vector: 29.9/16.1[5] 21.7/3.9[5] 5.4/1.9[5] 2.3/3.1[1]  2592/500
Matrix Compiler1: 91.24 KB object code size  32.4/24.9/[19.6]
Matrix Compiler2: 78.36 KB object code size  15.5/16.2/[6.1]


