Circuit: *** SPICE deck for cell Two_bit_adder2{lay} from library Proj2

