Circuit: *** SPICE deck for cell Two_bit_adder2{lay} from library Proj2

Vgnd: both pins shorted together -- ignoring.
Ignoring BSIM parameter XL
Ignoring BSIM parameter XW
Ignoring BSIM parameter XL
Ignoring BSIM parameter XW
WARNING: Node OUT is floating.

WARNING: Less than two connections to node OUT.  This node is used by CLOAD.
Direct Newton iteration for .op point succeeded.

Date: Wed Mar 18 00:30:10 2020
Total elapsed time: 1.065 seconds.

tnom = 27
temp = 27
method = modified trap
totiter = 4536
traniter = 4498
tranpoints = 1860
accept = 1619
rejected = 241
matrix size = 764
fillins = 1262
solver = Normal
Thread vector: 35.7/15.6[5] 22.7/5.3[5] 5.3/2.8[5] 2.8/3.8[1]  2592/500
Matrix Compiler1: 90.46 KB object code size  40.1/24.4/[19.3]
Matrix Compiler2: 77.63 KB object code size  15.2/16.4/[10.2]


