Circuit: *** SPICE deck for cell Two_bit_adder{sch} from library Proj2

Vgnd: both pins shorted together -- ignoring.
Ignoring BSIM parameter XL
Ignoring BSIM parameter XW
Ignoring BSIM parameter XL
Ignoring BSIM parameter XW
WARNING: Node OUT is floating.

WARNING: Less than two connections to node OUT.  This node is used by CLOAD.
Warning: Pd = 0 is less than W.
Warning: Ps = 0 is less than W.
Warning: Pd = 0 is less than W.
Warning: Ps = 0 is less than W.
Warning: Pd = 0 is less than W.
Warning: Ps = 0 is less than W.
Vin3: Missing value, assumed 0V @ DC
Direct Newton iteration for .op point succeeded.

Date: Tue Mar 17 05:30:45 2020
Total elapsed time: 0.163 seconds.

tnom = 27
temp = 27
method = modified trap
totiter = 3088
traniter = 3059
tranpoints = 1208
accept = 1144
rejected = 64
matrix size = 32
fillins = 6
solver = Normal
Thread vector: 32.4/13.3[4] 7.3/3.3[4] 2.8/1.5[4] 0.2/1.2[1]  2592/500
Matrix Compiler1: 3.13 KB object code size  0.5/0.3/[0.2]
Matrix Compiler2: 3.81 KB object code size  0.3/0.4/[0.4]


