Circuit: *** SPICE deck for cell XOR_2{lay} from library Proj2

Vgnd: both pins shorted together -- ignoring.
Ignoring BSIM parameter XL
Ignoring BSIM parameter XW
Ignoring BSIM parameter XL
Ignoring BSIM parameter XW
Direct Newton iteration for .op point succeeded.

Date: Tue Mar 17 03:49:28 2020
Total elapsed time: 0.246 seconds.

tnom = 27
temp = 27
method = modified trap
totiter = 2420
traniter = 2398
tranpoints = 1130
accept = 1102
rejected = 28
matrix size = 134
fillins = 120
solver = Normal
Thread vector: 35.7/26.6[2] 9.1/7.9[2] 3.2/3.3[1] 1.6/4.0[1]  2592/500
Matrix Compiler1: 12.28 KB object code size  5.1/3.6/[3.0]
Matrix Compiler2: 12.27 KB object code size  2.5/3.1/[1.7]


