Circuit: *** SPICE deck for cell XOR_2{lay} from library Proj2

Vgnd: both pins shorted together -- ignoring.
Ignoring BSIM parameter XL
Ignoring BSIM parameter XW
Ignoring BSIM parameter XL
Ignoring BSIM parameter XW
Direct Newton iteration for .op point succeeded.

Date: Wed Mar 18 00:12:11 2020
Total elapsed time: 0.205 seconds.

tnom = 27
temp = 27
method = modified trap
totiter = 2408
traniter = 2386
tranpoints = 1129
accept = 1099
rejected = 30
matrix size = 121
fillins = 108
solver = Normal
Thread vector: 14.8/10.9[2] 3.8/3.3[2] 0.9/1.4[1] 0.4/1.4[1]  2592/500
Matrix Compiler1: 11.18 KB object code size  2.0/1.4/[1.0]
Matrix Compiler2: 11.14 KB object code size  0.9/1.3/[0.6]


