Circuit: *** SPICE deck for cell AND_3{lay} from library project_1

Vgnd: both pins shorted together -- ignoring.
Ignoring BSIM parameter XL
Ignoring BSIM parameter XW
Ignoring BSIM parameter XL
Ignoring BSIM parameter XW
WARNING: Specified period is not longer than the sum of Trise, Tfall, and Ton for vin.  Increasing period to 2e-007
Vin3: Missing value, assumed 0V @ DC
Vin2: Missing value, assumed 0V @ DC
Direct Newton iteration for .op point succeeded.

Date: Tue Mar 03 19:13:17 2020
Total elapsed time: 0.219 seconds.

tnom = 27
temp = 27
method = modified trap
totiter = 2581
traniter = 2571
tranpoints = 1132
accept = 1103
rejected = 29
matrix size = 51
fillins = 30
solver = Normal
Matrix Compiler1: 4.05 KB object code size  1.8/1.1/[0.9]
Matrix Compiler2: 4.48 KB object code size  1.0/1.2/[0.6]


