Circuit: *** SPICE deck for cell AND_2{lay} from library project_1

Vgnd: both pins shorted together -- ignoring.
Ignoring BSIM parameter XL
Ignoring BSIM parameter XW
Ignoring BSIM parameter XL
Ignoring BSIM parameter XW
Direct Newton iteration for .op point succeeded.

Date: Wed Mar 04 03:36:12 2020
Total elapsed time: 0.177 seconds.

tnom = 27
temp = 27
method = modified trap
totiter = 2292
traniter = 2282
tranpoints = 1103
accept = 1085
rejected = 18
matrix size = 35
fillins = 18
solver = Normal
Matrix Compiler1: 2.61 KB object code size  1.2/0.8/[0.5]
Matrix Compiler2: 2.98 KB object code size  0.7/0.8/[0.4]


