Circuit: *** SPICE deck for cell AND_2{lay} from library project_1

Vgnd: both pins shorted together -- ignoring.
Ignoring BSIM parameter XL
Ignoring BSIM parameter XW
Ignoring BSIM parameter XL
Ignoring BSIM parameter XW
Direct Newton iteration for .op point succeeded.

Date: Wed Mar 04 03:30:10 2020
Total elapsed time: 0.105 seconds.

tnom = 27
temp = 27
method = modified trap
totiter = 2244
traniter = 2237
tranpoints = 1097
accept = 1083
rejected = 14
matrix size = 28
fillins = 14
solver = Normal
Matrix Compiler1: 1.98 KB object code size  0.4/0.3/[0.2]
Matrix Compiler2: 2.32 KB object code size  0.2/0.3/[0.2]


