Circuit: *** SPICE deck for cell HW3{lay} from library project_1_delmaybe

Vgnd: both pins shorted together -- ignoring.
Ignoring BSIM parameter XL
Ignoring BSIM parameter XW
Ignoring BSIM parameter XL
Ignoring BSIM parameter XW
Direct Newton iteration for .op point succeeded.

Date: Wed Mar 04 23:04:08 2020
Total elapsed time: 0.338 seconds.

tnom = 27
temp = 27
method = modified trap
totiter = 5016
traniter = 5004
tranpoints = 1872
accept = 1621
rejected = 251
matrix size = 139
fillins = 110
solver = Normal
Thread vector: 49.5/39.4[2] 28.8/11.3[2] 3.2/3.7[1] 0.9/3.6[1]  2592/500
Matrix Compiler1: 12.24 KB object code size  5.2/3.2/[2.3]
Matrix Compiler2: 12.76 KB object code size  2.6/3.5/[1.5]


