Circuit: *** SPICE deck for cell HW3{lay} from library project_1_delmaybe

Vgnd: both pins shorted together -- ignoring.
Ignoring BSIM parameter XL
Ignoring BSIM parameter XW
Ignoring BSIM parameter XL
Ignoring BSIM parameter XW
WARNING: Node NET@54 is floating.
WARNING: Node OUT is floating.

WARNING: Less than two connections to node OUT.  This node is used by CLOAD.
Direct Newton iteration for .op point succeeded.

Date: Wed Mar 04 00:23:52 2020
Total elapsed time: 0.119 seconds.

tnom = 27
temp = 27
method = modified trap
totiter = 2324
traniter = 2314
tranpoints = 1123
accept = 1099
rejected = 24
matrix size = 25
fillins = 8
solver = Normal
Matrix Compiler1: 1.64 KB object code size  0.3/0.2/[0.1]
Matrix Compiler2: 2.05 KB object code size  0.2/0.3/[0.2]


