Circuit: *** SPICE deck for cell HW3_prob8{lay} from library HW3

Vgnd: both pins shorted together -- ignoring.
Ignoring BSIM parameter XL
Ignoring BSIM parameter XW
Ignoring BSIM parameter XL
Ignoring BSIM parameter XW
WARNING: Node P1 is floating.

Direct Newton iteration for .op point succeeded.

Date: Thu Apr 30 22:12:19 2020
Total elapsed time: 0.224 seconds.

tnom = 27
temp = 27
method = modified trap
totiter = 2558
traniter = 2538
tranpoints = 1227
accept = 1184
rejected = 43
matrix size = 90
fillins = 56
solver = Normal
Matrix Compiler1: 6.63 KB object code size  3.2/2.1/[1.6]
Matrix Compiler2: 7.43 KB object code size  1.5/2.0/[1.0]


