Circuit: *** SPICE deck for cell HW3_3{sch} from library project_1_delmaybe

Vgnd: both pins shorted together -- ignoring.
Ignoring BSIM parameter XL
Ignoring BSIM parameter XW
Ignoring BSIM parameter XL
Ignoring BSIM parameter XW
Warning: Pd = 0 is less than W.
Warning: Ps = 0 is less than W.
Warning: Pd = 0 is less than W.
Warning: Ps = 0 is less than W.
Direct Newton iteration for .op point succeeded.

Date: Wed Mar 04 23:26:35 2020
Total elapsed time: 0.344 seconds.

tnom = 27
temp = 27
method = modified trap
totiter = 4129
traniter = 4112
tranpoints = 1514
accept = 1379
rejected = 135
matrix size = 16
fillins = 2
solver = Normal
Matrix Compiler1: 1.03 KB object code size  0.2/0.1/[0.1]
Matrix Compiler2: 1.53 KB object code size  0.2/0.2/[0.2]


