Circuit: *** SPICE deck for cell NAND_2{lay} from library project_1

