Circuit: *** SPICE deck for cell NAND_2{lay} from library project_1

Vgnd: both pins shorted together -- ignoring.
Ignoring BSIM parameter XL
Ignoring BSIM parameter XW
Ignoring BSIM parameter XL
Ignoring BSIM parameter XW
Direct Newton iteration for .op point succeeded.

Date: Wed Mar 04 03:30:21 2020
Total elapsed time: 0.151 seconds.

tnom = 27
temp = 27
method = modified trap
totiter = 2251
traniter = 2244
tranpoints = 1100
accept = 1083
rejected = 17
matrix size = 25
fillins = 18
solver = Normal
Matrix Compiler1: 1.99 KB object code size  0.8/0.6/[0.4]
Matrix Compiler2: 2.18 KB object code size  0.5/0.6/[0.3]


