Circuit: *** SPICE deck for cell NOR_2{lay} from library project_1

Vgnd: both pins shorted together -- ignoring.
Ignoring BSIM parameter XL
Ignoring BSIM parameter XW
Ignoring BSIM parameter XL
Ignoring BSIM parameter XW
WARNING: Node NET@29##0 is floating.

WARNING: Less than two connections to node A.  This node is used by VIN.
Direct Newton iteration for .op point succeeded.

Date: Tue Mar 03 19:37:14 2020
Total elapsed time: 0.178 seconds.

tnom = 27
temp = 27
method = modified trap
totiter = 2226
traniter = 2218
tranpoints = 1097
accept = 1083
rejected = 14
matrix size = 23
fillins = 12
solver = Normal
Matrix Compiler1: 1.66 KB object code size  0.8/0.5/[0.4]
Matrix Compiler2: 1.92 KB object code size  0.5/0.6/[0.4]


