Circuit: *** SPICE deck for cell OR_2{lay} from library project_1

Vgnd: both pins shorted together -- ignoring.
Ignoring BSIM parameter XL
Ignoring BSIM parameter XW
Ignoring BSIM parameter XL
Ignoring BSIM parameter XW
Direct Newton iteration for .op point succeeded.

Date: Tue Mar 03 20:15:00 2020
Total elapsed time: 0.115 seconds.

tnom = 27
temp = 27
method = modified trap
totiter = 2338
traniter = 2330
tranpoints = 1121
accept = 1095
rejected = 26
matrix size = 35
fillins = 24
solver = Normal
Matrix Compiler1: 2.86 KB object code size  0.4/0.3/[0.2]
Matrix Compiler2: 3.12 KB object code size  0.3/0.3/[0.2]


