Circuit: *** SPICE deck for cell TG{sch} from library HW3

Vgnd: both pins shorted together -- ignoring.
Ignoring BSIM parameter XL
Ignoring BSIM parameter XW
Ignoring BSIM parameter XL
Ignoring BSIM parameter XW
Warning: Pd = 0 is less than W.
Warning: Ps = 0 is less than W.
Warning: Pd = 0 is less than W.
Warning: Ps = 0 is less than W.
Warning: Pd = 0 is less than W.
Warning: Ps = 0 is less than W.
Direct Newton iteration for .op point succeeded.

Date: Mon Apr 27 15:45:47 2020
Total elapsed time: 0.170 seconds.

tnom = 27
temp = 27
method = modified trap
totiter = 2712
traniter = 2701
tranpoints = 1294
accept = 1233
rejected = 61
matrix size = 8
fillins = 0
solver = Normal
Matrix Compiler1: 354 bytes object code size  0.3/0.2/[0.2]
Matrix Compiler2: 698 bytes object code size  0.2/0.2/[0.1]


