Circuit: *** SPICE deck for cell NAND_sim{sch} from library tutorial_3

Ignoring BSIM parameter XL
Ignoring BSIM parameter XW
Ignoring BSIM parameter XL
Ignoring BSIM parameter XW
Warning: Pd = 0 is less than W.
Warning: Ps = 0 is less than W.
Warning: Pd = 0 is less than W.
Warning: Ps = 0 is less than W.
Direct Newton iteration for .op point succeeded.

Date: Wed Feb 26 19:17:31 2020
Total elapsed time: 0.116 seconds.

tnom = 27
temp = 27
method = modified trap
totiter = 2120
traniter = 2110
tranpoints = 1054
accept = 1052
rejected = 2
matrix size = 6
fillins = 0
solver = Normal
Matrix Compiler1: 218 bytes object code size  0.2/0.1/[0.1]
Matrix Compiler2: 476 bytes object code size  0.2/0.2/[0.1]


