Circuit: *** SPICE deck for cell MUX_16_1_TG_2{lay} from library MUX_16_1

Vgnd: both pins shorted together -- ignoring.
Ignoring BSIM parameter XL
Ignoring BSIM parameter XW
Ignoring BSIM parameter XL
Ignoring BSIM parameter XW
Direct Newton iteration for .op point succeeded.

Date: Wed May 13 21:25:58 2020
Total elapsed time: 4.076 seconds.

tnom = 27
temp = 27
method = modified trap
totiter = 8100
traniter = 8087
tranpoints = 3329
accept = 2773
rejected = 556
matrix size = 1355
fillins = 2312
solver = Normal
Thread vector: 186.4/42.7[12] 62.7/9.7[12] 13.3/4.9[12] 10.4/5.1[9]  2592/500
Matrix Compiler1: 169.70 KB object code size  94.2/57.0/[38.9]
Matrix Compiler2: 142.01 KB object code size  38.4/51.1/[20.5]


