Circuit: *** SPICE deck for cell MUX_16_1_TG{lay} from library MUX_16_1

Vgnd: both pins shorted together -- ignoring.
Ignoring BSIM parameter XL
Ignoring BSIM parameter XW
Ignoring BSIM parameter XL
Ignoring BSIM parameter XW
Direct Newton iteration for .op point succeeded.

Date: Wed May 13 21:37:35 2020
Total elapsed time: 3.765 seconds.

tnom = 27
temp = 27
method = modified trap
totiter = 7743
traniter = 7730
tranpoints = 3121
accept = 2551
rejected = 570
matrix size = 1338
fillins = 2114
solver = Normal
Thread vector: 105.0/40.1[12] 48.4/9.3[12] 11.9/4.8[12] 6.4/4.8[6]  2592/500
Matrix Compiler1: 161.36 KB object code size  84.0/47.2/[22.9]
Matrix Compiler2: 137.51 KB object code size  31.1/37.5/[13.5]


