Circuit: *** SPICE deck for cell MUX_16_1_TG{lay} from library MUX_16_1

Vgnd: both pins shorted together -- ignoring.
Ignoring BSIM parameter XL
Ignoring BSIM parameter XW
Ignoring BSIM parameter XL
Ignoring BSIM parameter XW
Direct Newton iteration for .op point succeeded.

Date: Thu May 14 04:07:17 2020
Total elapsed time: 4.096 seconds.

tnom = 27
temp = 27
method = modified trap
totiter = 8438
traniter = 8425
tranpoints = 3481
accept = 2905
rejected = 576
matrix size = 1352
fillins = 2188
solver = Normal
Thread vector: 191.7/36.7[12] 67.0/9.8[12] 14.0/4.9[12] 10.6/6.2[11]  2592/500
Matrix Compiler1: 165.26 KB object code size  87.7/62.1/[42.0]
Matrix Compiler2: 139.78 KB object code size  36.9/52.9/[20.5]


