Circuit: *** SPICE deck for cell MUX_16_1_TG{lay} from library MUX_16_1

Vgnd: both pins shorted together -- ignoring.
Ignoring BSIM parameter XL
Ignoring BSIM parameter XW
Ignoring BSIM parameter XL
Ignoring BSIM parameter XW
Direct Newton iteration for .op point succeeded.

Date: Wed May 13 21:15:04 2020
Total elapsed time: 3.649 seconds.

tnom = 27
temp = 27
method = modified trap
totiter = 7743
traniter = 7730
tranpoints = 3121
accept = 2551
rejected = 570
matrix size = 1338
fillins = 2114
solver = Normal
Thread vector: 183.6/62.5[12] 66.5/16.4[12] 12.8/4.5[12] 10.0/5.5[9]  2592/500
Matrix Compiler1: 161.36 KB object code size  86.8/56.4/[39.1]
Matrix Compiler2: 137.51 KB object code size  36.6/53.8/[21.5]


