Circuit: *** SPICE deck for cell MUX_16_1_TG{lay} from library MUX_16_1

Vgnd: both pins shorted together -- ignoring.
Ignoring BSIM parameter XL
Ignoring BSIM parameter XW
Ignoring BSIM parameter XL
Ignoring BSIM parameter XW
Direct Newton iteration for .op point succeeded.

Date: Sun May 10 23:24:58 2020
Total elapsed time: 3.391 seconds.

tnom = 27
temp = 27
method = modified trap
totiter = 6727
traniter = 6714
tranpoints = 2870
accept = 2412
rejected = 458
matrix size = 1338
fillins = 2114
solver = Normal
Thread vector: 89.1/28.3[12] 45.1/8.6[12] 9.4/4.4[12] 5.0/7.2[1]  2592/500
Matrix Compiler1: 161.36 KB object code size  75.6/43.6/[21.3]
Matrix Compiler2: 137.51 KB object code size  31.5/33.5/[10.3]


