Circuit: *** SPICE deck for cell MUX_16_1_TG_2{lay} from library MUX_16_1

Vgnd: both pins shorted together -- ignoring.
Ignoring BSIM parameter XL
Ignoring BSIM parameter XW
Ignoring BSIM parameter XL
Ignoring BSIM parameter XW
Direct Newton iteration for .op point succeeded.

Date: Wed May 13 21:35:50 2020
Total elapsed time: 3.615 seconds.

tnom = 27
temp = 27
method = modified trap
totiter = 8100
traniter = 8087
tranpoints = 3329
accept = 2773
rejected = 556
matrix size = 1355
fillins = 2312
solver = Normal
Thread vector: 93.5/30.3[12] 43.4/9.7[12] 9.2/4.3[12] 5.5/7.2[1]  2592/500
Matrix Compiler1: 169.70 KB object code size  78.4/46.7/[21.3]
Matrix Compiler2: 142.01 KB object code size  30.6/35.5/[15.5]


