Circuit: *** SPICE deck for cell MUX_2_1{sch} from library All_ICs

Vgnd: both pins shorted together -- ignoring.
Ignoring BSIM parameter XL
Ignoring BSIM parameter XW
Ignoring BSIM parameter XL
Ignoring BSIM parameter XW
WARNING: Less than two connections to node CLK.  This node is used by VIN0.
Warning: Pd = 0 is less than W.
Warning: Ps = 0 is less than W.
Warning: Pd = 0 is less than W.
Warning: Ps = 0 is less than W.
Direct Newton iteration for .op point succeeded.

Date: Sat May 16 17:44:45 2020
Total elapsed time: 0.167 seconds.

tnom = 27
temp = 27
method = modified trap
totiter = 2840
traniter = 2826
tranpoints = 1142
accept = 1111
rejected = 31
matrix size = 16
fillins = 2
solver = Normal
Matrix Compiler1: 914 bytes object code size  0.2/0.1/[0.1]
Matrix Compiler2: 1.47 KB object code size  0.2/0.2/[0.2]


