Circuit: *** SPICE deck for cell MUX_4_1{lay} from library All_ICs

Vgnd: both pins shorted together -- ignoring.
Ignoring BSIM parameter XL
Ignoring BSIM parameter XW
Ignoring BSIM parameter XL
Ignoring BSIM parameter XW
Direct Newton iteration for .op point succeeded.

Date: Mon May 11 01:34:30 2020
Total elapsed time: 0.412 seconds.

tnom = 27
temp = 27
method = modified trap
totiter = 3011
traniter = 2998
tranpoints = 1279
accept = 1202
rejected = 77
matrix size = 328
fillins = 330
solver = Normal
Thread vector: 37.8/15.5[4] 8.9/4.7[4] 1.9/3.2[1] 1.1/1.9[1]  2592/500
Matrix Compiler1: 32.05 KB object code size  5.4/3.4/[2.3]
Matrix Compiler2: 30.83 KB object code size  2.6/2.8/[2.0]


