Circuit: *** SPICE deck for cell MUX_2_1_dynamic{sch} from library MUX_16_1

Vgnd: both pins shorted together -- ignoring.
Ignoring BSIM parameter XL
Ignoring BSIM parameter XW
Ignoring BSIM parameter XL
Ignoring BSIM parameter XW
Warning: Pd = 0 is less than W.
Warning: Ps = 0 is less than W.
Warning: Pd = 0 is less than W.
Warning: Ps = 0 is less than W.
Direct Newton iteration for .op point succeeded.

Date: Sat May 16 23:51:35 2020
Total elapsed time: 0.155 seconds.

tnom = 27
temp = 27
method = modified trap
totiter = 3443
traniter = 3426
tranpoints = 1197
accept = 1152
rejected = 45
matrix size = 16
fillins = 2
solver = Normal
Matrix Compiler1: 868 bytes object code size  0.3/0.1/[0.1]
Matrix Compiler2: 1.45 KB object code size  0.8/0.2/[0.1]


