Circuit: *** SPICE deck for cell MUX_4_1_TG{sch} from library All_ICs

Vgnd: both pins shorted together -- ignoring.
Ignoring BSIM parameter XL
Ignoring BSIM parameter XW
Ignoring BSIM parameter XL
Ignoring BSIM parameter XW
Warning: Pd = 0 is less than W.
Warning: Ps = 0 is less than W.
Warning: Pd = 0 is less than W.
Warning: Ps = 0 is less than W.
Direct Newton iteration for .op point succeeded.

Date: Sat May 16 17:42:27 2020
Total elapsed time: 0.171 seconds.

tnom = 27
temp = 27
method = modified trap
totiter = 3503
traniter = 3496
tranpoints = 1167
accept = 1134
rejected = 33
matrix size = 20
fillins = 0
solver = Normal
Matrix Compiler1: 1.18 KB object code size  0.3/0.2/[0.1]
Matrix Compiler2: 2.20 KB object code size  0.2/0.8/[0.2]


