Circuit: *** SPICE deck for cell MUX_16_1_TG_3{lay} from library MUX_16_1

Vgnd: both pins shorted together -- ignoring.
Ignoring BSIM parameter XL
Ignoring BSIM parameter XW
Ignoring BSIM parameter XL
Ignoring BSIM parameter XW
Direct Newton iteration for .op point succeeded.

Date: Thu May 14 00:15:08 2020
Total elapsed time: 4.122 seconds.

tnom = 27
temp = 27
method = modified trap
totiter = 8389
traniter = 8376
tranpoints = 3473
accept = 2904
rejected = 569
matrix size = 1352
fillins = 2188
solver = Normal
Thread vector: 123.5/25.7[12] 53.2/9.7[12] 10.6/4.6[12] 7.7/4.7[10]  2592/500
Matrix Compiler1: 165.26 KB object code size  90.9/50.6/[27.2]
Matrix Compiler2: 139.78 KB object code size  34.4/39.4/[12.1]


