Circuit: *** SPICE deck for cell MUX_16_1_TG{sch} from library MUX_16_1

Vgnd: both pins shorted together -- ignoring.
Ignoring BSIM parameter XL
Ignoring BSIM parameter XW
Ignoring BSIM parameter XL
Ignoring BSIM parameter XW
Warning: Pd = 0 is less than W.
Warning: Ps = 0 is less than W.
Warning: Pd = 0 is less than W.
Warning: Ps = 0 is less than W.
Direct Newton iteration for .op point succeeded.

Date: Thu May 14 04:25:29 2020
Total elapsed time: 0.574 seconds.

tnom = 27
temp = 27
method = modified trap
totiter = 7688
traniter = 7679
tranpoints = 3109
accept = 2546
rejected = 563
matrix size = 72
fillins = 0
solver = Normal
Thread vector: 88.8/21.2[9] 19.3/4.6[9] 8.1/3.2[9] 0.5/1.8[1]  2592/500
Matrix Compiler1: 5.58 KB object code size  1.8/1.7/[0.3]
Matrix Compiler2: 9.31 KB object code size  1.8/2.2/[0.5]


