Circuit: *** SPICE deck for cell MUX_8_1_TG{lay} from library All_ICs

Vgnd: both pins shorted together -- ignoring.
Ignoring BSIM parameter XL
Ignoring BSIM parameter XW
Ignoring BSIM parameter XL
Ignoring BSIM parameter XW
Direct Newton iteration for .op point succeeded.

Date: Wed May 13 23:33:15 2020
Total elapsed time: 1.360 seconds.

tnom = 27
temp = 27
method = modified trap
totiter = 4856
traniter = 4845
tranpoints = 2093
accept = 1815
rejected = 278
matrix size = 634
fillins = 950
solver = Normal
Thread vector: 99.9/30.2[9] 41.4/6.1[9] 8.6/4.0[9] 4.8/3.4[6]  2592/500
Matrix Compiler1: 73.75 KB object code size  45.7/34.0/[20.2]
Matrix Compiler2: 64.17 KB object code size  19.9/28.2/[7.7]


