Circuit: *** SPICE deck for cell MUX_8_1{lay} from library All_ICs

Vgnd: both pins shorted together -- ignoring.
Ignoring BSIM parameter XL
Ignoring BSIM parameter XW
Ignoring BSIM parameter XL
Ignoring BSIM parameter XW
Direct Newton iteration for .op point succeeded.

Date: Mon May 11 01:36:15 2020
Total elapsed time: 1.582 seconds.

tnom = 27
temp = 27
method = modified trap
totiter = 5842
traniter = 5813
tranpoints = 2021
accept = 1683
rejected = 338
matrix size = 780
fillins = 924
solver = Normal
Thread vector: 75.2/22.7[11] 44.5/25.1[11] 12.0/5.6[10] 3.0/6.3[1]  2592/500
Matrix Compiler1: 81.95 KB object code size  33.8/23.1/[14.0]
Matrix Compiler2: 75.73 KB object code size  16.5/18.1/[7.8]


