Circuit: *** SPICE deck for cell MUX_16_1_TG_3{lay} from library MUX_16_1

Vgnd: both pins shorted together -- ignoring.
Ignoring BSIM parameter XL
Ignoring BSIM parameter XW
Ignoring BSIM parameter XL
Ignoring BSIM parameter XW
Direct Newton iteration for .op point succeeded.

Date: Wed May 13 23:39:11 2020
Total elapsed time: 4.267 seconds.

tnom = 27
temp = 27
method = modified trap
totiter = 8359
traniter = 8346
tranpoints = 3452
accept = 2883
rejected = 569
matrix size = 1353
fillins = 2180
solver = Normal
Thread vector: 131.3/31.1[12] 52.9/12.1[12] 12.4/4.6[12] 6.9/4.7[7]  2592/500
Matrix Compiler1: 164.69 KB object code size  80.7/52.9/[28.2]
Matrix Compiler2: 139.72 KB object code size  35.4/42.7/[14.3]


