Circuit: *** SPICE deck for cell MUX_8_1_TG{sch} from library All_ICs

Vgnd: both pins shorted together -- ignoring.
Ignoring BSIM parameter XL
Ignoring BSIM parameter XW
Ignoring BSIM parameter XL
Ignoring BSIM parameter XW
Warning: Pd = 0 is less than W.
Warning: Ps = 0 is less than W.
Warning: Pd = 0 is less than W.
Warning: Ps = 0 is less than W.
Direct Newton iteration for .op point succeeded.

Date: Mon May 11 01:19:36 2020
Total elapsed time: 0.229 seconds.

tnom = 27
temp = 27
method = modified trap
totiter = 4155
traniter = 4148
tranpoints = 1335
accept = 1249
rejected = 86
matrix size = 38
fillins = 0
solver = Normal
Thread vector: 33.7/11.6[4] 7.1/2.7[4] 2.1/1.5[4] 0.2/1.1[1]  2592/500
Matrix Compiler1: 2.65 KB object code size  0.5/0.3/[0.1]
Matrix Compiler2: 4.62 KB object code size  0.3/0.4/[0.2]


