Circuit: *** SPICE deck for cell MUX_8_1{lay} from library All_ICs

Vgnd: both pins shorted together -- ignoring.
Ignoring BSIM parameter XL
Ignoring BSIM parameter XW
Ignoring BSIM parameter XL
Ignoring BSIM parameter XW
Direct Newton iteration for .op point succeeded.

Date: Mon May 11 01:15:10 2020
Total elapsed time: 1.912 seconds.

tnom = 27
temp = 27
method = modified trap
totiter = 5881
traniter = 5852
tranpoints = 2045
accept = 1701
rejected = 344
matrix size = 780
fillins = 924
solver = Normal
Thread vector: 238.2/31.1[11] 37.3/14.0[11] 11.4/4.7[11] 6.9/4.7[7]  2592/500
Matrix Compiler1: 81.95 KB object code size  35.9/21.8/[10.7]
Matrix Compiler2: 75.73 KB object code size  15.3/14.3/[14.1]


