Circuit: *** SPICE deck for cell MUX_4_1_dynamic{sch} from library MUX_16_1

Vgnd: both pins shorted together -- ignoring.
Ignoring BSIM parameter XL
Ignoring BSIM parameter XW
Ignoring BSIM parameter XL
Ignoring BSIM parameter XW
Warning: Pd = 0 is less than W.
Warning: Ps = 0 is less than W.
Warning: Pd = 0 is less than W.
Warning: Ps = 0 is less than W.
Direct Newton iteration for .op point succeeded.

Date: Sun May 17 01:31:53 2020
Total elapsed time: 0.242 seconds.

tnom = 27
temp = 27
method = modified trap
totiter = 4617
traniter = 4586
tranpoints = 1426
accept = 1327
rejected = 99
matrix size = 34
fillins = 6
solver = Normal
Thread vector: 32.0/13.5[3] 5.9/3.6[3] 2.4/1.7[3] 0.8/1.4[1]  2592/500
Matrix Compiler1: 2.51 KB object code size  0.6/0.4/[0.2]
Matrix Compiler2: off  [0.4]/0.4/0.4


