Circuit: *** SPICE deck for cell MUX_16_1_test{lay} from library MUX_16_1

Vgnd: both pins shorted together -- ignoring.
Ignoring BSIM parameter XL
Ignoring BSIM parameter XW
Ignoring BSIM parameter XL
Ignoring BSIM parameter XW
Direct Newton iteration for .op point succeeded.

Date: Wed May 13 23:33:42 2020
Total elapsed time: 1.735 seconds.

tnom = 27
temp = 27
method = modified trap
totiter = 8276
traniter = 8263
tranpoints = 3426
accept = 2890
rejected = 536
matrix size = 1356
fillins = 2318
solver = Normal
Thread vector: 127.6/27.7[12] 58.2/10.2[12] 11.8/5.1[12] 7.1/4.9[7]  2592/500
Matrix Compiler1: 170.27 KB object code size  89.4/56.8/[31.5]
Matrix Compiler2: 142.18 KB object code size  38.2/46.3/[14.3]


