Circuit: *** SPICE deck for cell MUX_8_1_TG{lay} from library All_ICs

Vgnd: both pins shorted together -- ignoring.
Ignoring BSIM parameter XL
Ignoring BSIM parameter XW
Ignoring BSIM parameter XL
Ignoring BSIM parameter XW
Direct Newton iteration for .op point succeeded.

Date: Sun May 10 23:47:56 2020
Total elapsed time: 1.177 seconds.

tnom = 27
temp = 27
method = modified trap
totiter = 4820
traniter = 4809
tranpoints = 2070
accept = 1797
rejected = 273
matrix size = 634
fillins = 950
solver = Normal
Thread vector: 43.9/17.0[9] 14.1/4.2[9] 2.9/1.9[8] 2.1/4.3[1]  2592/500
Matrix Compiler1:    4099 opcodes  13.6/[7.6]/8.2
Matrix Compiler2: 64.17 KB object code size  4.9/8.8/[3.7]


