Circuit: *** SPICE deck for cell MUX_8_1_TG{lay} from library All_ICs

Vgnd: both pins shorted together -- ignoring.
Ignoring BSIM parameter XL
Ignoring BSIM parameter XW
Ignoring BSIM parameter XL
Ignoring BSIM parameter XW
Direct Newton iteration for .op point succeeded.

Date: Wed May 13 21:34:52 2020
Total elapsed time: 1.186 seconds.

tnom = 27
temp = 27
method = modified trap
totiter = 4856
traniter = 4845
tranpoints = 2093
accept = 1815
rejected = 278
matrix size = 634
fillins = 950
solver = Normal
Thread vector: 91.9/28.2[9] 38.9/4.6[9] 8.1/2.4[9] 4.7/3.5[6]  2592/500
Matrix Compiler1: 73.75 KB object code size  45.1/33.1/[18.5]
Matrix Compiler2: 64.17 KB object code size  18.9/27.3/[7.7]


