Circuit: *** SPICE deck for cell MUX_4_1{sch} from library All_ICs

Vgnd: both pins shorted together -- ignoring.
Ignoring BSIM parameter XL
Ignoring BSIM parameter XW
Ignoring BSIM parameter XL
Ignoring BSIM parameter XW
Warning: Pd = 0 is less than W.
Warning: Ps = 0 is less than W.
Warning: Pd = 0 is less than W.
Warning: Ps = 0 is less than W.
Direct Newton iteration for .op point succeeded.

Date: Mon May 11 01:04:06 2020
Total elapsed time: 0.206 seconds.

tnom = 27
temp = 27
method = modified trap
totiter = 4268
traniter = 4250
tranpoints = 1314
accept = 1223
rejected = 91
matrix size = 32
fillins = 6
solver = Normal
Thread vector: 27.5/13.3[3] 6.1/3.2[3] 2.0/1.4[3] 0.2/1.1[1]  2592/500
Matrix Compiler1: 2.56 KB object code size  0.5/0.4/[0.2]
Matrix Compiler2: 3.66 KB object code size  0.3/0.4/[0.2]


