Circuit: *** SPICE deck for cell MUX_16_1_TG_2{lay} from library MUX_16_1

Vgnd: both pins shorted together -- ignoring.
Ignoring BSIM parameter XL
Ignoring BSIM parameter XW
Ignoring BSIM parameter XL
Ignoring BSIM parameter XW
WARNING: Node NET@1031#4PIN@428_POLYSILICON-1##3 is floating.
WARNING: Node S3##6 is floating.

Direct Newton iteration for .op point succeeded.

Date: Mon May 11 00:47:22 2020
Total elapsed time: 3.438 seconds.

tnom = 27
temp = 27
method = modified trap
totiter = 6336
traniter = 6304
tranpoints = 2443
accept = 2038
rejected = 405
matrix size = 1348
fillins = 2412
solver = Normal
Thread vector: 69.4/30.3[12] 50.8/9.2[12] 10.6/4.5[12] 4.7/6.5[1]  2592/500
Matrix Compiler1: 176.59 KB object code size  82.6/48.7/[30.6]
Matrix Compiler2: 143.40 KB object code size  34.0/34.2/[11.7]


