Circuit: *** SPICE deck for cell NMOS_IV{sch} from library tutorial_2

Ignoring BSIM parameter XL
Ignoring BSIM parameter XW
WARNING: Less than two connections to node W.  This node is used by VW.
Warning: Pd = 0 is less than W.
Warning: Ps = 0 is less than W.
.OP point found by inspection.
.step vg=0
.step vg=1
.step vg=2
.step vg=3
.step vg=4
.step vg=5

Date: Sun Feb 23 20:58:51 2020
Total elapsed time: 0.168 seconds.

tnom = 27
temp = 27
method = trap
totiter = 60022
traniter = 0
tranpoints = 0
accept = 0
rejected = 0
matrix size = 8
fillins = 0
solver = Normal
Matrix Compiler1: 264 bytes object code size  0.1/0.0/[0.0]
Matrix Compiler2: 442 bytes object code size  0.1/0.1/[0.1]


