Circuit: *** SPICE deck for cell inv_20_10{sch} from library tutorial_2

Ignoring BSIM parameter XL
Ignoring BSIM parameter XW
Ignoring BSIM parameter XL
Ignoring BSIM parameter XW
Warning: Pd = 0 is less than W.
Warning: Ps = 0 is less than W.
Warning: Pd = 0 is less than W.
Warning: Ps = 0 is less than W.
.OP point found by inspection.

Date: Tue Feb 25 02:27:53 2020
Total elapsed time: 0.190 seconds.

tnom = 27
temp = 27
method = trap
totiter = 10000
traniter = 0
tranpoints = 0
accept = 0
rejected = 0
matrix size = 5
fillins = 0
solver = Normal
Matrix Compiler1: 132 bytes object code size  0.1/0.1/[0.1]
Matrix Compiler2: 335 bytes object code size  0.2/0.1/[0.1]


