Circuit: *** SPICE deck for cell invertor_sim{lay} from library tutorial_2

Ignoring BSIM parameter XL
Ignoring BSIM parameter XW
Ignoring BSIM parameter XL
Ignoring BSIM parameter XW

Date: Tue Feb 25 03:46:09 2020
Total elapsed time: 0.108 seconds.

tnom = 27
temp = 27
method = trap
totiter = 10007
traniter = 0
tranpoints = 0
accept = 0
rejected = 0
matrix size = 5
fillins = 0
solver = Normal
Matrix Compiler1: 204 bytes object code size  0.1/0.1/[0.0]
Matrix Compiler2: 311 bytes object code size  0.1/0.1/[0.0]


