Circuit: *** SPICE deck for cell AND_3{lay} from library tutorial_4

Vgnd: both pins shorted together -- ignoring.
Ignoring BSIM parameter XL
Ignoring BSIM parameter XW
Ignoring BSIM parameter XL
Ignoring BSIM parameter XW
WARNING: Specified period is not longer than the sum of Trise, Tfall, and Ton for vin.  Increasing period to 2e-007
WARNING: Node B#1PIN@1_POLYSILICON-1##0 is floating.
WARNING: Node C#5PMOS@2_POLY-RIGHT##1 is floating.

Direct Newton iteration for .op point succeeded.

Date: Fri Feb 28 15:13:10 2020
Total elapsed time: 0.367 seconds.

tnom = 27
temp = 27
method = modified trap
totiter = 2126
traniter = 2117
tranpoints = 1058
accept = 1053
rejected = 5
matrix size = 49
fillins = 34
solver = Normal
Matrix Compiler1: 4.26 KB object code size  2.1/1.2/[0.7]
Matrix Compiler2: 4.36 KB object code size  1.0/1.2/[0.7]


