Circuit: *** SPICE deck for cell AND_3_sim{lay} from library tutorial_4

Vgnd: both pins shorted together -- ignoring.
Ignoring BSIM parameter XL
Ignoring BSIM parameter XW
Ignoring BSIM parameter XL
Ignoring BSIM parameter XW
Direct Newton iteration for .op point succeeded.

Date: Fri Feb 28 05:11:03 2020
Total elapsed time: 0.107 seconds.

tnom = 27
temp = 27
method = modified trap
totiter = 2128
traniter = 2118
tranpoints = 1055
accept = 1051
rejected = 4
matrix size = 40
fillins = 28
solver = Normal
Matrix Compiler1: 3.54 KB object code size  0.5/0.4/[0.2]
Matrix Compiler2: 3.69 KB object code size  0.3/0.3/[0.2]


