Circuit: *** SPICE deck for cell AND_3_sim{lay} from library tutorial_4

Vgnd: both pins shorted together -- ignoring.
Ignoring BSIM parameter XL
Ignoring BSIM parameter XW
Ignoring BSIM parameter XL
Ignoring BSIM parameter XW
WARNING: Specified period is not longer than the sum of Trise, Tfall, and Ton for vin2.  Increasing period to 3e-008
Direct Newton iteration for .op point succeeded.

Date: Fri Feb 28 06:08:52 2020
Total elapsed time: 0.115 seconds.

tnom = 27
temp = 27
method = modified trap
totiter = 2395
traniter = 2365
tranpoints = 1099
accept = 1084
rejected = 15
matrix size = 42
fillins = 28
solver = Normal
Matrix Compiler1: 3.57 KB object code size  0.6/0.3/[0.2]
Matrix Compiler2: off  [0.3]/0.4/0.3


