Circuit: *** SPICE deck for cell NAND_3_sim{lay} from library tutorial_4

Vgnd: both pins shorted together -- ignoring.
Ignoring BSIM parameter XL
Ignoring BSIM parameter XW
Ignoring BSIM parameter XL
Ignoring BSIM parameter XW
Direct Newton iteration for .op point succeeded.

Date: Fri Feb 28 06:41:17 2020
Total elapsed time: 0.152 seconds.

tnom = 27
temp = 27
method = modified trap
totiter = 2103
traniter = 2092
tranpoints = 1046
accept = 1045
rejected = 1
matrix size = 37
fillins = 24
solver = Normal
Matrix Compiler1: 3.13 KB object code size  1.4/0.8/[0.5]
Matrix Compiler2: 3.31 KB object code size  0.7/0.9/[0.6]


