Circuit: *** SPICE deck for cell AND_3_sim{lay} from library tutorial_4

Vgnd: both pins shorted together -- ignoring.
Ignoring BSIM parameter XL
Ignoring BSIM parameter XW
Ignoring BSIM parameter XL
Ignoring BSIM parameter XW
Direct Newton iteration for .op point succeeded.

Date: Fri Feb 28 23:58:34 2020
Total elapsed time: 0.179 seconds.

tnom = 27
temp = 27
method = modified trap
totiter = 2549
traniter = 2540
tranpoints = 1177
accept = 1137
rejected = 40
matrix size = 51
fillins = 30
solver = Normal
Matrix Compiler1: 4.02 KB object code size  0.7/0.5/[0.3]
Matrix Compiler2: 4.41 KB object code size  0.4/0.5/[0.3]


