Circuit: *** SPICE deck for cell NAND_sim{lay} from library tutorial_3

Ignoring BSIM parameter XL
Ignoring BSIM parameter XW
Ignoring BSIM parameter XL
Ignoring BSIM parameter XW
Direct Newton iteration for .op point succeeded.

Date: Thu Feb 27 21:04:49 2020
Total elapsed time: 0.127 seconds.

tnom = 27
temp = 27
method = modified trap
totiter = 2116
traniter = 2109
tranpoints = 1054
accept = 1052
rejected = 2
matrix size = 6
fillins = 0
solver = Normal
Matrix Compiler1: 218 bytes object code size  0.1/0.1/[0.1]
Matrix Compiler2:      38 opcodes  0.1/[0.1]/0.1


